protein_ligand
     RDKit          3D

 24 27  0  0  0  0  0  0  0  0999 V2000
  -65.9029   25.9017   31.0709 C   0  0  0  0  0  0  0  0  0  0  0  0
  -65.7024   25.3197   29.6901 C   0  0  0  0  0  0  0  0  0  0  0  0
  -66.6378   25.9760   28.6856 C   0  0  0  0  0  0  0  0  0  0  0  0
  -67.7048   26.7850   29.3891 C   0  0  0  0  0  0  0  0  0  0  0  0
  -67.1685   27.8077   30.2332 N   0  0  0  0  0  0  0  0  0  0  0  0
  -65.9897   27.4156   30.9523 C   0  0  0  0  0  0  0  0  0  0  0  0
  -67.2761   24.9986   27.7944 C   0  0  0  0  0  0  0  0  0  0  0  0
  -66.7515   24.6918   26.5532 C   0  0  0  0  0  0  0  0  0  0  0  0
  -67.3507   23.7742   25.7165 C   0  0  0  0  0  0  0  0  0  0  0  0
  -68.4886   23.1497   26.1156 C   0  0  0  0  0  0  0  0  0  0  0  0
  -69.0143   23.4539   27.3536 C   0  0  0  0  0  0  0  0  0  0  0  0
  -68.4437   24.3577   28.2036 C   0  0  0  0  0  0  0  0  0  0  0  0
  -69.1318   22.1872   25.2573 N   0  0  0  0  0  0  0  0  0  0  0  0
  -68.7905   21.8859   23.9916 C   0  0  0  0  0  0  0  0  0  0  0  0
  -69.6364   20.9108   23.4793 C   0  0  0  0  0  0  0  0  0  0  0  0
  -69.7475   20.2473   22.2774 C   0  0  0  0  0  0  0  0  0  0  0  0
  -70.7189   19.2989   22.0522 C   0  0  0  0  0  0  0  0  0  0  0  0
  -71.5896   19.0304   23.0829 C   0  0  0  0  0  0  0  0  0  0  0  0
  -71.4980   19.6860   24.3041 C   0  0  0  0  0  0  0  0  0  0  0  0
  -70.5129   20.6429   24.5220 C   0  0  0  0  0  0  0  0  0  0  0  0
  -70.1638   21.4286   25.5459 N   0  0  0  0  0  0  0  0  0  0  0  0
  -72.4261   19.3849   25.3710 C   0  0  0  0  0  0  0  0  0  0  0  0
  -73.2847   18.4968   25.2218 O   0  0  0  0  0  0  0  0  0  0  0  0
  -72.3694   20.0923   26.5902 N   0  0  0  0  0  0  0  0  0  0  0  0
  1  2  1  0
  2  3  1  0
  3  4  1  0
  4  5  1  0
  5  6  1  0
  3  7  1  0
  7  8  2  0
  8  9  1  0
  9 10  2  0
 10 11  1  0
 11 12  2  0
 10 13  1  0
 13 14  1  0
 14 15  2  0
 15 16  1  0
 16 17  2  0
 17 18  1  0
 18 19  2  0
 19 20  1  0
 20 21  2  0
 19 22  1  0
 22 23  2  0
 22 24  1  0
  6  1  1  0
 12  7  1  0
 21 13  1  0
 20 15  1  0
M  END
$$$$
