protein_ligand
     RDKit          3D

 24 27  0  0  0  0  0  0  0  0999 V2000
  -64.6703   26.3313   29.9566 C   0  0  0  0  0  0  0  0  0  0  0  0
  -65.4001   26.2806   28.6336 C   0  0  0  0  0  0  0  0  0  0  0  0
  -66.8996   26.1382   28.8482 C   0  0  0  0  0  0  0  0  0  0  0  0
  -67.2080   25.7762   30.2841 C   0  0  0  0  0  0  0  0  0  0  0  0
  -66.7122   26.7341   31.2235 N   0  0  0  0  0  0  0  0  0  0  0  0
  -65.4218   27.2676   30.8906 C   0  0  0  0  0  0  0  0  0  0  0  0
  -67.5000   25.1395   27.9543 C   0  0  0  0  0  0  0  0  0  0  0  0
  -66.8348   24.6645   26.8400 C   0  0  0  0  0  0  0  0  0  0  0  0
  -67.3984   23.7269   26.0007 C   0  0  0  0  0  0  0  0  0  0  0  0
  -68.6417   23.2515   26.2694 C   0  0  0  0  0  0  0  0  0  0  0  0
  -69.3079   23.7237   27.3808 C   0  0  0  0  0  0  0  0  0  0  0  0
  -68.7757   24.6515   28.2298 C   0  0  0  0  0  0  0  0  0  0  0  0
  -69.2502   22.2712   25.4059 N   0  0  0  0  0  0  0  0  0  0  0  0
  -68.8721   21.9600   24.1532 C   0  0  0  0  0  0  0  0  0  0  0  0
  -69.6921   20.9685   23.6303 C   0  0  0  0  0  0  0  0  0  0  0  0
  -69.7634   20.2901   22.4337 C   0  0  0  0  0  0  0  0  0  0  0  0
  -70.7167   19.3270   22.1943 C   0  0  0  0  0  0  0  0  0  0  0  0
  -71.6108   19.0592   23.2050 C   0  0  0  0  0  0  0  0  0  0  0  0
  -71.5595   19.7296   24.4204 C   0  0  0  0  0  0  0  0  0  0  0  0
  -70.5923   20.7013   24.6528 C   0  0  0  0  0  0  0  0  0  0  0  0
  -70.2800   21.5030   25.6763 N   0  0  0  0  0  0  0  0  0  0  0  0
  -72.5114   19.4288   25.4661 C   0  0  0  0  0  0  0  0  0  0  0  0
  -73.3588   18.5326   25.3025 O   0  0  0  0  0  0  0  0  0  0  0  0
  -72.4909   20.1458   26.6809 N   0  0  0  0  0  0  0  0  0  0  0  0
  1  2  1  0
  2  3  1  0
  3  4  1  0
  4  5  1  0
  5  6  1  0
  3  7  1  0
  7  8  2  0
  8  9  1  0
  9 10  2  0
 10 11  1  0
 11 12  2  0
 10 13  1  0
 13 14  1  0
 14 15  2  0
 15 16  1  0
 16 17  2  0
 17 18  1  0
 18 19  2  0
 19 20  1  0
 20 21  2  0
 19 22  1  0
 22 23  2  0
 22 24  1  0
  6  1  1  0
 12  7  1  0
 21 13  1  0
 20 15  1  0
M  END
$$$$
