protein_ligand
     RDKit          3D

 24 27  0  0  0  0  0  0  0  0999 V2000
  -64.7200   26.9934   29.5725 C   0  0  0  0  0  0  0  0  0  0  0  0
  -65.8792   26.9063   28.6059 C   0  0  0  0  0  0  0  0  0  0  0  0
  -67.0203   26.0953   29.2017 C   0  0  0  0  0  0  0  0  0  0  0  0
  -66.5668   25.3516   30.4382 C   0  0  0  0  0  0  0  0  0  0  0  0
  -66.0547   26.2156   31.4567 N   0  0  0  0  0  0  0  0  0  0  0  0
  -65.2648   27.3055   30.9580 C   0  0  0  0  0  0  0  0  0  0  0  0
  -67.5894   25.1413   28.2409 C   0  0  0  0  0  0  0  0  0  0  0  0
  -67.1369   25.0614   26.9375 C   0  0  0  0  0  0  0  0  0  0  0  0
  -67.6711   24.1658   26.0355 C   0  0  0  0  0  0  0  0  0  0  0  0
  -68.6703   23.3354   26.4306 C   0  0  0  0  0  0  0  0  0  0  0  0
  -69.1238   23.4130   27.7307 C   0  0  0  0  0  0  0  0  0  0  0  0
  -68.6146   24.2892   28.6461 C   0  0  0  0  0  0  0  0  0  0  0  0
  -69.2434   22.3916   25.5047 N   0  0  0  0  0  0  0  0  0  0  0  0
  -68.7884   22.0975   24.2735 C   0  0  0  0  0  0  0  0  0  0  0  0
  -69.5962   21.1408   23.6726 C   0  0  0  0  0  0  0  0  0  0  0  0
  -69.6029   20.4910   22.4582 C   0  0  0  0  0  0  0  0  0  0  0  0
  -70.5623   19.5603   22.1316 C   0  0  0  0  0  0  0  0  0  0  0  0
  -71.5305   19.2952   23.0723 C   0  0  0  0  0  0  0  0  0  0  0  0
  -71.5453   19.9372   24.3040 C   0  0  0  0  0  0  0  0  0  0  0  0
  -70.5712   20.8764   24.6248 C   0  0  0  0  0  0  0  0  0  0  0  0
  -70.3091   21.6464   25.6859 N   0  0  0  0  0  0  0  0  0  0  0  0
  -72.5744   19.6401   25.2750 C   0  0  0  0  0  0  0  0  0  0  0  0
  -73.4556   18.8007   25.0164 O   0  0  0  0  0  0  0  0  0  0  0  0
  -72.5916   20.2966   26.5236 N   0  0  0  0  0  0  0  0  0  0  0  0
  1  2  1  0
  2  3  1  0
  3  4  1  0
  4  5  1  0
  5  6  1  0
  3  7  1  0
  7  8  2  0
  8  9  1  0
  9 10  2  0
 10 11  1  0
 11 12  2  0
 10 13  1  0
 13 14  1  0
 14 15  2  0
 15 16  1  0
 16 17  2  0
 17 18  1  0
 18 19  2  0
 19 20  1  0
 20 21  2  0
 19 22  1  0
 22 23  2  0
 22 24  1  0
  6  1  1  0
 12  7  1  0
 21 13  1  0
 20 15  1  0
M  END
$$$$
