protein_ligand
     RDKit          3D

 24 27  0  0  0  0  0  0  0  0999 V2000
  -65.1890   27.4504   29.3699 C   0  0  0  0  0  0  0  0  0  0  0  0
  -66.5421   27.1064   28.7899 C   0  0  0  0  0  0  0  0  0  0  0  0
  -67.0885   25.8299   29.4118 C   0  0  0  0  0  0  0  0  0  0  0  0
  -66.0126   25.1035   30.1881 C   0  0  0  0  0  0  0  0  0  0  0  0
  -65.4395   25.8976   31.2307 N   0  0  0  0  0  0  0  0  0  0  0  0
  -65.2490   27.2764   30.8798 C   0  0  0  0  0  0  0  0  0  0  0  0
  -67.6640   24.9221   28.4109 C   0  0  0  0  0  0  0  0  0  0  0  0
  -68.5032   23.8831   28.7658 C   0  0  0  0  0  0  0  0  0  0  0  0
  -69.0435   23.0308   27.8262 C   0  0  0  0  0  0  0  0  0  0  0  0
  -68.7478   23.2103   26.5131 C   0  0  0  0  0  0  0  0  0  0  0  0
  -67.9106   24.2464   26.1561 C   0  0  0  0  0  0  0  0  0  0  0  0
  -67.3608   25.1062   27.0636 C   0  0  0  0  0  0  0  0  0  0  0  0
  -69.3013   22.3315   25.5140 N   0  0  0  0  0  0  0  0  0  0  0  0
  -68.8237   22.1246   24.2737 C   0  0  0  0  0  0  0  0  0  0  0  0
  -69.6174   21.2099   23.5938 C   0  0  0  0  0  0  0  0  0  0  0  0
  -69.6004   20.6458   22.3373 C   0  0  0  0  0  0  0  0  0  0  0  0
  -70.5506   19.7375   21.9302 C   0  0  0  0  0  0  0  0  0  0  0  0
  -71.5340   19.4055   22.8331 C   0  0  0  0  0  0  0  0  0  0  0  0
  -71.5727   19.9605   24.1058 C   0  0  0  0  0  0  0  0  0  0  0  0
  -70.6079   20.8776   24.5080 C   0  0  0  0  0  0  0  0  0  0  0  0
  -70.3672   21.5729   25.6244 N   0  0  0  0  0  0  0  0  0  0  0  0
  -72.6175   19.5943   25.0356 C   0  0  0  0  0  0  0  0  0  0  0  0
  -73.4747   18.7518   24.7140 O   0  0  0  0  0  0  0  0  0  0  0  0
  -72.6773   20.1861   26.3148 N   0  0  0  0  0  0  0  0  0  0  0  0
  1  2  1  0
  2  3  1  0
  3  4  1  0
  4  5  1  0
  5  6  1  0
  3  7  1  0
  7  8  2  0
  8  9  1  0
  9 10  2  0
 10 11  1  0
 11 12  2  0
 10 13  1  0
 13 14  1  0
 14 15  2  0
 15 16  1  0
 16 17  2  0
 17 18  1  0
 18 19  2  0
 19 20  1  0
 20 21  2  0
 19 22  1  0
 22 23  2  0
 22 24  1  0
  6  1  1  0
 12  7  1  0
 21 13  1  0
 20 15  1  0
M  END
$$$$
