protein_ligand
     RDKit          3D

 24 27  0  0  0  0  0  0  0  0999 V2000
  -64.6313   26.6959   30.0330 C   0  0  0  0  0  0  0  0  0  0  0  0
  -65.5036   26.6527   28.7990 C   0  0  0  0  0  0  0  0  0  0  0  0
  -66.9421   26.3188   29.1649 C   0  0  0  0  0  0  0  0  0  0  0  0
  -67.0358   25.8222   30.5906 C   0  0  0  0  0  0  0  0  0  0  0  0
  -66.5396   26.7633   31.5466 N   0  0  0  0  0  0  0  0  0  0  0  0
  -65.3642   27.4682   31.1194 C   0  0  0  0  0  0  0  0  0  0  0  0
  -67.5317   25.3216   28.2621 C   0  0  0  0  0  0  0  0  0  0  0  0
  -68.2688   24.2534   28.7370 C   0  0  0  0  0  0  0  0  0  0  0  0
  -68.8223   23.3172   27.8894 C   0  0  0  0  0  0  0  0  0  0  0  0
  -68.6429   23.4408   26.5491 C   0  0  0  0  0  0  0  0  0  0  0  0
  -67.9078   24.5058   26.0724 C   0  0  0  0  0  0  0  0  0  0  0  0
  -67.3478   25.4482   26.8868 C   0  0  0  0  0  0  0  0  0  0  0  0
  -69.2124   22.4740   25.6447 N   0  0  0  0  0  0  0  0  0  0  0  0
  -68.7498   22.1460   24.4250 C   0  0  0  0  0  0  0  0  0  0  0  0
  -69.5561   21.1756   23.8444 C   0  0  0  0  0  0  0  0  0  0  0  0
  -69.5563   20.4937   22.6477 C   0  0  0  0  0  0  0  0  0  0  0  0
  -70.5161   19.5569   22.3395 C   0  0  0  0  0  0  0  0  0  0  0  0
  -71.4912   19.3195   23.2804 C   0  0  0  0  0  0  0  0  0  0  0  0
  -71.5126   19.9942   24.4944 C   0  0  0  0  0  0  0  0  0  0  0  0
  -70.5382   20.9391   24.7966 C   0  0  0  0  0  0  0  0  0  0  0  0
  -70.2812   21.7366   25.8386 N   0  0  0  0  0  0  0  0  0  0  0  0
  -72.5490   19.7257   25.4660 C   0  0  0  0  0  0  0  0  0  0  0  0
  -73.4101   18.8568   25.2389 O   0  0  0  0  0  0  0  0  0  0  0  0
  -72.5962   20.4436   26.6795 N   0  0  0  0  0  0  0  0  0  0  0  0
  1  2  1  0
  2  3  1  0
  3  4  1  0
  4  5  1  0
  5  6  1  0
  3  7  1  0
  7  8  2  0
  8  9  1  0
  9 10  2  0
 10 11  1  0
 11 12  2  0
 10 13  1  0
 13 14  1  0
 14 15  2  0
 15 16  1  0
 16 17  2  0
 17 18  1  0
 18 19  2  0
 19 20  1  0
 20 21  2  0
 19 22  1  0
 22 23  2  0
 22 24  1  0
  6  1  1  0
 12  7  1  0
 21 13  1  0
 20 15  1  0
M  END
$$$$
